Circuit: * C:\Users\lo\Documents\GitHub\ELECTENG_310_Team14\LTSpice\CircuitImplementation.asc

r8: both pins shorted together -- ignoring.
Direct Newton iteration for .op point succeeded.

Date: Wed Mar 27 13:08:15 2024
Total elapsed time: 0.580 seconds.

tnom = 27
temp = 27
method = modified trap
totiter = 37310
traniter = 37296
tranpoints = 14043
accept = 12080
rejected = 1963
matrix size = 90
fillins = 200
solver = Normal
Avg thread counts: 1.0/1.0/1.0/1.0
Matrix Compiler1: 19.40 KB object code size  3.8/2.6/[1.1]
Matrix Compiler2: 10.96 KB object code size  1.5/1.7/[0.7]

